# generated using pymatgen
data_MnV2O5
_symmetry_space_group_name_H-M   Pnma
_cell_length_a   9.75600000
_cell_length_b   3.58200000
_cell_length_c   11.26300000
_cell_angle_alpha   90.00000000
_cell_angle_beta   90.00000000
_cell_angle_gamma   90.00000000
_symmetry_Int_Tables_number   62
_chemical_formula_structural   MnV2O5
_chemical_formula_sum   'Mn4 V8 O20'
_cell_volume   393.59670790
_cell_formula_units_Z   4
loop_
 _symmetry_equiv_pos_site_id
 _symmetry_equiv_pos_as_xyz
  1  'x, y, z'
  2  '-x, -y, -z'
  3  '-x+1/2, -y, z+1/2'
  4  'x+1/2, y, -z+1/2'
  5  'x+1/2, -y+1/2, -z+1/2'
  6  '-x+1/2, y+1/2, z+1/2'
  7  '-x, y+1/2, -z'
  8  'x, -y+1/2, z'
loop_
 _atom_site_type_symbol
 _atom_site_label
 _atom_site_symmetry_multiplicity
 _atom_site_fract_x
 _atom_site_fract_y
 _atom_site_fract_z
 _atom_site_occupancy
  Mn  Mn0  4  0.177800  0.250000  0.726300  1
  V  V1  4  0.065700  0.250000  0.098700  1
  V  V2  4  0.123800  0.750000  0.498200  1
  O  O3  4  0.023700  0.750000  0.773900  1
  O  O4  4  0.060500  0.750000  0.025600  1
  O  O5  4  0.072500  0.250000  0.553000  1
  O  O6  4  0.213700  0.750000  0.366700  1
  O  O7  4  0.240900  0.250000  0.134100  1
