# generated using pymatgen
data_Cu(BiO2)2
_symmetry_space_group_name_H-M   'P 1'
_cell_length_a   8.50020027
_cell_length_b   8.50020027
_cell_length_c   5.81759977
_cell_angle_alpha   90.00000000
_cell_angle_beta   90.00000000
_cell_angle_gamma   90.00000000
_symmetry_Int_Tables_number   1
_chemical_formula_structural   Cu(BiO2)2
_chemical_formula_sum   'Cu4 Bi8 O16'
_cell_volume   420.34139056
_cell_formula_units_Z   4
loop_
 _symmetry_equiv_pos_site_id
 _symmetry_equiv_pos_as_xyz
  1  'x, y, z'
loop_
 _atom_site_type_symbol
 _atom_site_label
 _atom_site_symmetry_multiplicity
 _atom_site_fract_x
 _atom_site_fract_y
 _atom_site_fract_z
 _atom_site_occupancy
  Bi  Bi0  1  0.91870099  0.41870001  0.25000000  1
  Bi  Bi1  1  0.08129901  0.58130002  0.75000000  1
  Bi  Bi2  1  0.58129901  0.08129999  0.25000000  1
  Bi  Bi3  1  0.41870099  0.91869998  0.75000000  1
  Bi  Bi4  1  0.08129999  0.91870099  0.25000000  1
  Bi  Bi5  1  0.91869998  0.08129901  0.75000000  1
  Bi  Bi6  1  0.41870001  0.58129901  0.25000000  1
  Bi  Bi7  1  0.58130002  0.41870099  0.75000000  1
  Cu  Cu8  1  0.75000000  0.75000000  0.07799000  1
  Cu  Cu9  1  0.25000000  0.25000000  0.92201000  1
  Cu  Cu10  1  0.25000000  0.25000000  0.42201001  1
  Cu  Cu11  1  0.75000000  0.75000000  0.57799000  1
  O  O12  1  0.04927000  0.35795999  0.90847999  1
  O  O13  1  0.95073003  0.64204001  0.09152000  1
  O  O14  1  0.45073000  0.14204001  0.90847999  1
  O  O15  1  0.54926997  0.85795999  0.09152000  1
  O  O16  1  0.14204001  0.04927000  0.90847999  1
  O  O17  1  0.85795999  0.95073003  0.09152000  1
  O  O18  1  0.35795999  0.45073000  0.90847999  1
  O  O19  1  0.64204001  0.54926997  0.09152000  1
  O  O20  1  0.95073003  0.85795999  0.59152001  1
  O  O21  1  0.04927000  0.14204001  0.40847999  1
  O  O22  1  0.54926997  0.64204001  0.59152001  1
  O  O23  1  0.45073000  0.35795999  0.40847999  1
  O  O24  1  0.85795999  0.54926997  0.59152001  1
  O  O25  1  0.14204001  0.45073000  0.40847999  1
  O  O26  1  0.64204001  0.95073003  0.59152001  1
  O  O27  1  0.35795999  0.04927000  0.40847999  1
